10
optimized structure
 C  -1.9597731213679335 -0.03131041116199223 0.16028455201784264
 H  -3.037609789650211 -0.17718954309641047 0.27076481126823526
 O  -1.5194582230562934 0.06839602154124895 -1.0203085333284514
 O  -1.2826524819778886 0.020221761448303864 1.2263382163118677
 H  -0.3287450151198705 0.22840673482970708 -1.1099276875690849
 C  1.532325561161453 0.44132560781000996 -0.19766229820673298
 H  2.6101622659750685 0.5872047832820906 -0.30814257289930663
 O  1.0920106050420109 0.34161911961476393 0.9829307443301689
 O  0.855204885674872 0.3897934519131607 -1.2637159371298134
 H  -0.09870247337124563 0.18160845583547475 1.0725498318171802
