5
optimized structure
 C  1.4517000023800457 0.2418993599894353 -0.07047174456442863
 H  0.386258279317874 -0.0033090324380943984 -0.015394958341764265
 O  1.7817440546651466 0.5705277601408216 -1.3353967091738423
 O  2.2162402733282534 0.22158597937258262 0.8593284637686854
 H  2.7294347975072353 0.7775332495410567 -1.3295528096933475
